YE4
  CCTOOLS-0919241038

 54 57  0  0  0  0  0  0  0  0999 V2000
    5.9260   -1.9770    0.2270 C   0  0  0  0  0
    4.8710   -0.4740   -1.3100 C   0  0  0  0  0
   -0.4980    3.6750   -0.3510 C   0  0  0  0  0
   -2.6040    4.8410   -0.1860 C   0  0  0  0  0
   -4.4220    1.2740    0.9660 C   0  0  0  0  0
   -3.6990    0.0950    1.0810 C   0  0  0  0  0
   -4.3960   -1.1740    1.5000 C   0  0  0  0  0
   -5.7730   -2.9910    0.6830 C   0  0  0  0  0
   -3.7700   -2.3580   -0.5180 C   0  0  0  0  0
   -0.2630    1.2800    0.1370 C   0  0  0  0  0
    0.3220    2.5690   -0.2650 C   0  0  0  0  0
    1.7570    2.6770   -0.5710 C   0  0  0  0  0
    4.0140    1.7580   -0.5730 C   0  0  0  0  0
    4.6890    0.4410   -0.2900 C   0  0  0  0  0
    5.1250    0.1480    0.9880 C   0  0  0  0  0
    5.7440   -1.0600    1.2480 C   0  0  0  0  0
    5.4890   -1.6830   -1.0520 C   0  0  0  0  0
   -2.4380    2.4520    0.3080 C   0  0  0  0  0
   -3.8030    2.4440    0.5830 C   0  0  0  0  0
   -6.3080   -3.6590   -0.5870 C   0  0  0  0  0
   -4.3250   -3.0320   -1.7760 C   0  0  0  0  0
   -2.3480    0.0790    0.8130 C   0  0  0  0  0
   -1.7090    1.2570    0.4260 C   0  0  0  0  0
    2.5690    1.6190   -0.3750 N   0  0  0  0  0
   -1.8080    3.6160   -0.0750 N   0  0  0  0  0
   -4.8870   -1.8790    0.3090 N   0  0  0  0  0
    0.4190    0.2740    0.2270 O   0  0  0  0  0
    2.2100    3.7200   -1.0020 O   0  0  0  0  0
   -5.2080   -4.0900   -1.3930 O   0  0  0  0  0
    6.7100   -3.4920    0.5510 CL  0  0  0  0  0
    4.5290   -0.2450   -2.3090 H   0  0  0  0  0
   -0.0690    4.6210   -0.6450 H   0  0  0  0  0
   -2.6040    5.3620    0.7710 H   0  0  0  0  0
   -2.1730    5.4860   -0.9510 H   0  0  0  0  0
   -3.6280    4.5850   -0.4610 H   0  0  0  0  0
   -5.4810    1.2740    1.1780 H   0  0  0  0  0
   -3.6950   -1.8130    2.0370 H   0  0  0  0  0
   -5.2360   -0.9290    2.1500 H   0  0  0  0  0
   -6.6070   -2.6100    1.2730 H   0  0  0  0  0
   -3.1790   -3.0760    0.0490 H   0  0  0  0  0
   -3.1410   -1.5140   -0.8040 H   0  0  0  0  0
    4.4020    2.5180    0.1060 H   0  0  0  0  0
    4.2130    2.0550   -1.6020 H   0  0  0  0  0
    4.9830    0.8640    1.7840 H   0  0  0  0  0
    6.0840   -1.2890    2.2470 H   0  0  0  0  0
    5.6320   -2.3980   -1.8490 H   0  0  0  0  0
   -4.3770    3.3550    0.4970 H   0  0  0  0  0
   -6.9190   -4.5200   -0.3150 H   0  0  0  0  0
   -4.8720   -2.3000   -2.3700 H   0  0  0  0  0
   -3.5030   -3.4380   -2.3640 H   0  0  0  0  0
   -1.7870   -0.8390    0.9040 H   0  0  0  0  0
    2.1970    0.7660   -0.1020 H   0  0  0  0  0
   -5.2140   -3.7200    1.2700 H   0  0  0  0  0
   -6.9120   -2.9450   -1.1460 H   0  0  0  0  0
  1 17  1  0  0  0
  2 31  1  0  0  0
  3 32  1  0  0  0
  4 33  1  0  0  0
  4 34  1  0  0  0
  4 35  1  0  0  0
  5 19  1  0  0  0
  5 36  1  0  0  0
  6  5  2  0  0  0
  6 22  1  0  0  0
  7  6  1  0  0  0
  7 37  1  0  0  0
  7 38  1  0  0  0
  8 26  1  0  0  0
  8 39  1  0  0  0
  8 53  1  0  0  0
  9 26  1  0  0  0
  9 40  1  0  0  0
  9 41  1  0  0  0
 10 11  1  0  0  0
 11  3  2  0  0  0
 11 12  1  0  0  0
 12 28  2  0  0  0
 13 42  1  0  0  0
 13 43  1  0  0  0
 14  2  1  0  0  0
 14 13  1  0  0  0
 15 14  2  0  0  0
 15 44  1  0  0  0
 16  1  2  0  0  0
 16 15  1  0  0  0
 16 45  1  0  0  0
 17  2  2  0  0  0
 17 46  1  0  0  0
 18 25  1  0  0  0
 19 18  2  0  0  0
 19 47  1  0  0  0
 20  8  1  0  0  0
 20 48  1  0  0  0
 20 54  1  0  0  0
 21  9  1  0  0  0
 21 49  1  0  0  0
 21 50  1  0  0  0
 22 23  2  0  0  0
 22 51  1  0  0  0
 23 18  1  0  0  0
 23 10  1  0  0  0
 24 12  1  0  0  0
 24 13  1  0  0  0
 24 52  1  0  0  0
 25  4  1  0  0  0
 25  3  1  0  0  0
 26  7  1  0  0  0
 27 10  2  0  0  0
 29 21  1  0  0  0
 29 20  1  0  0  0
 30  1  1  0  0  0
M  END
$$$$
